LIG(A-410)
  -OEChem-09282201453D

 54 58  0     1  0  0  0  0  0999 V2000
    8.6220    6.8220   22.7990 N   0  0  0  0  0  0  0  0  0  0  0  0
    7.9510    5.9030   22.8140 C   0  0  0  0  0  0  0  0  0  0  0  0
    7.0460    4.7470   22.7910 C   0  0  0  0  0  0  0  0  0  0  0  0
    5.6900    4.9220   23.4380 C   0  0  0  0  0  0  0  0  0  0  0  0
    5.7930    4.9240   21.9610 C   0  0  0  0  0  0  0  0  0  0  0  0
    7.7330    3.3860   22.8180 C   0  0  0  0  0  0  0  0  0  0  0  0
    7.9580    2.6490   24.4250 S   0  0  0  0  0  0  0  0  0  0  0  0
    6.7250    2.0550   24.8360 O   0  0  0  0  0  0  0  0  0  0  0  0
    8.5750    3.6230   25.2690 O   0  0  0  0  0  0  0  0  0  0  0  0
    9.0270    1.4390   24.2240 N   0  0  1  0  0  0  0  0  0  0  0  0
   10.4290    1.6880   24.5770 C   0  0  0  0  0  0  0  0  0  0  0  0
    8.6530    0.0130   24.1800 C   0  0  0  0  0  0  0  0  0  0  0  0
    9.3650   -0.5840   22.9630 C   0  0  2  0  0  0  0  0  0  0  0  0
   10.8580   -0.2780   23.0080 C   0  0  0  0  0  0  0  0  0  0  0  0
   11.3290    0.8510   23.7010 C   0  0  0  0  0  0  0  0  0  0  0  0
   12.6750    1.1990   23.6050 C   0  0  0  0  0  0  0  0  0  0  0  0
   13.5590    0.4420   22.8600 C   0  0  0  0  0  0  0  0  0  0  0  0
   11.7630   -1.0600   22.2850 C   0  0  0  0  0  0  0  0  0  0  0  0
   13.0950   -0.6830   22.2190 C   0  0  0  0  0  0  0  0  0  0  0  0
   14.2020   -1.6290   21.2610 Cl  0  0  0  0  0  0  0  0  0  0  0  0
    8.7540    0.0640   21.7180 C   0  0  0  0  0  0  0  0  0  0  0  0
    9.2720    1.0320   21.1720 O   0  0  0  0  0  0  0  0  0  0  0  0
    7.5820   -0.4810   21.2960 N   0  0  0  0  0  0  0  0  0  0  0  0
    6.7850   -0.0540   20.2040 C   0  0  0  0  0  0  0  0  0  0  0  0
    5.6140    0.7320   20.4560 C   0  0  0  0  0  0  0  0  0  0  0  0
    5.0910    0.9780   21.7540 C   0  0  0  0  0  0  0  0  0  0  0  0
    3.9610    1.7290   21.9270 C   0  0  0  0  0  0  0  0  0  0  0  0
    3.2940    2.2700   20.8350 C   0  0  0  0  0  0  0  0  0  0  0  0
    3.7590    2.0660   19.5660 C   0  0  0  0  0  0  0  0  0  0  0  0
    4.9260    1.2920   19.3410 C   0  0  0  0  0  0  0  0  0  0  0  0
    5.4360    1.0250   18.0460 C   0  0  0  0  0  0  0  0  0  0  0  0
    6.5060    0.2820   17.8080 N   0  0  0  0  0  0  0  0  0  0  0  0
    7.1500   -0.2360   18.8660 C   0  0  0  0  0  0  0  0  0  0  0  0
    5.2150    4.0740   23.9530 H   0  0  0  0  0  0  0  0  0  0  0  0
    5.4539    5.8542   23.9721 H   0  0  0  0  0  0  0  0  0  0  0  0
    5.3945    4.0774   21.3826 H   0  0  0  0  0  0  0  0  0  0  0  0
    5.6334    5.8576   21.4017 H   0  0  0  0  0  0  0  0  0  0  0  0
    7.1295    2.6935   22.2129 H   0  0  0  0  0  0  0  0  0  0  0  0
    8.7264    3.5025   22.3603 H   0  0  0  0  0  0  0  0  0  0  0  0
   10.6604    2.7530   24.4276 H   0  0  0  0  0  0  0  0  0  0  0  0
   10.5937    1.4214   25.6314 H   0  0  0  0  0  0  0  0  0  0  0  0
    8.9806   -0.4946   25.0992 H   0  0  0  0  0  0  0  0  0  0  0  0
    7.5633   -0.0912   24.0721 H   0  0  0  0  0  0  0  0  0  0  0  0
    9.2060   -1.6721   22.9339 H   0  0  0  0  0  0  0  0  0  0  0  0
   13.0338    2.0765   24.1224 H   0  0  0  0  0  0  0  0  0  0  0  0
   14.5973    0.7290   22.7823 H   0  0  0  0  0  0  0  0  0  0  0  0
   11.4261   -1.9534   21.7804 H   0  0  0  0  0  0  0  0  0  0  0  0
    7.2456   -1.2687   21.8120 H   0  0  0  0  0  0  0  0  0  0  0  0
    5.5932    0.5659   22.6168 H   0  0  0  0  0  0  0  0  0  0  0  0
    3.5831    1.9034   22.9236 H   0  0  0  0  0  0  0  0  0  0  0  0
    2.4006    2.8567   20.9901 H   0  0  0  0  0  0  0  0  0  0  0  0
    3.2332    2.4979   18.7273 H   0  0  0  0  0  0  0  0  0  0  0  0
    4.9196    1.4544   17.2002 H   0  0  0  0  0  0  0  0  0  0  0  0
    8.0211   -0.8429   18.6678 H   0  0  0  0  0  0  0  0  0  0  0  0
  1  2  3  0  0  0  0
  2  3  1  0  0  0  0
  3  4  1  0  0  0  0
  3  5  1  0  0  0  0
  3  6  1  0  0  0  0
  4  5  1  0  0  0  0
  6  7  1  0  0  0  0
  7  8  2  0  0  0  0
  7  9  2  0  0  0  0
  7 10  1  0  0  0  0
 10 11  1  0  0  0  0
 10 12  1  0  0  0  0
 11 15  1  0  0  0  0
 12 13  1  0  0  0  0
 13 14  1  0  0  0  0
 13 21  1  0  0  0  0
 14 15  2  0  0  0  0
 14 18  1  0  0  0  0
 15 16  1  0  0  0  0
 16 17  2  0  0  0  0
 17 19  1  0  0  0  0
 18 19  2  0  0  0  0
 19 20  1  0  0  0  0
 21 22  2  0  0  0  0
 21 23  1  0  0  0  0
 23 24  1  0  0  0  0
 24 25  2  0  0  0  0
 24 33  1  0  0  0  0
 25 26  1  0  0  0  0
 25 30  1  0  0  0  0
 26 27  2  0  0  0  0
 27 28  1  0  0  0  0
 28 29  2  0  0  0  0
 29 30  1  0  0  0  0
 30 31  2  0  0  0  0
 31 32  1  0  0  0  0
 32 33  2  0  0  0  0
  4 34  1  0  0  0  0
  4 35  1  0  0  0  0
  5 36  1  0  0  0  0
  5 37  1  0  0  0  0
  6 38  1  0  0  0  0
  6 39  1  0  0  0  0
 11 40  1  0  0  0  0
 11 41  1  0  0  0  0
 12 42  1  0  0  0  0
 12 43  1  0  0  0  0
 13 44  1  0  0  0  0
 16 45  1  0  0  0  0
 17 46  1  0  0  0  0
 18 47  1  0  0  0  0
 23 48  1  0  0  0  0
 26 49  1  0  0  0  0
 27 50  1  0  0  0  0
 28 51  1  0  0  0  0
 29 52  1  0  0  0  0
 31 53  1  0  0  0  0
 33 54  1  0  0  0  0
M  END
$$$$
