obj01
 OpenBabel08082315473D

 28 31  0  0  0  0  0  0  0  0999 V2000
   -6.5790   14.9010    1.3490 N   0  0  0  0  0  0  0  0  0  0  0  0
   -8.0090   14.7990    1.5630 C   0  0  0  0  0  0  0  0  0  0  0  0
   -6.7600   15.1020   -0.8720 O   0  0  0  0  0  0  0  0  0  0  0  0
   -6.0660   15.0520    0.1370 C   0  0  0  0  0  0  0  0  0  0  0  0
   -1.0880   14.2420   -2.4050 N   0  0  0  0  0  0  0  0  0  0  0  0
   -2.0170   18.1700   -5.1240 O   0  0  0  0  0  0  0  0  0  0  0  0
   -4.6060   15.1170    0.0530 C   0  0  0  0  0  0  0  0  0  0  0  0
   -0.0830   14.8610   -0.4090 N   0  0  0  0  0  0  0  0  0  0  0  0
    0.5420   19.2650   -5.7400 O   0  0  0  0  0  0  0  0  0  0  0  0
   -3.8140   14.9530   -1.0520 C   0  0  0  0  0  0  0  0  0  0  0  0
   -1.4110   15.2690    1.5670 N   0  0  0  0  0  0  0  0  0  0  0  0
   -2.4650   14.9990   -0.6090 C   0  0  0  0  0  0  0  0  0  0  0  0
   -3.8040   15.2790    1.1690 N   0  0  0  0  0  0  0  0  0  0  0  0
   -1.1910   14.7690   -1.1700 C   0  0  0  0  0  0  0  0  0  0  0  0
    0.1090   14.2330   -3.2240 C   0  0  2  0  0  0  0  0  0  0  0  0
    0.2050   15.4770   -4.0790 C   0  0  0  0  0  0  0  0  0  0  0  0
    1.4380   16.0240   -4.3840 C   0  0  0  0  0  0  0  0  0  0  0  0
    1.5460   17.3000   -4.9040 C   0  0  0  0  0  0  0  0  0  0  0  0
    0.4030   18.0330   -5.1540 C   0  0  0  0  0  0  0  0  0  0  0  0
   -0.8540   17.4830   -4.8800 C   0  0  0  0  0  0  0  0  0  0  0  0
   -0.9460   16.2080   -4.3610 C   0  0  0  0  0  0  0  0  0  0  0  0
   -1.9660   18.9980   -6.3040 C   0  0  0  0  0  0  0  0  0  0  0  0
   -0.5200   19.5770   -6.6600 C   0  0  0  0  0  0  0  0  0  0  0  0
    0.2290   12.9310   -4.0500 C   0  0  0  0  0  0  0  0  0  0  0  0
   -1.0780   12.5890   -4.7540 C   0  0  0  0  0  0  0  0  0  0  0  0
    0.6750   11.7570   -3.1800 C   0  0  0  0  0  0  0  0  0  0  0  0
   -0.2650   15.1030    0.8960 C   0  0  0  0  0  0  0  0  0  0  0  0
   -2.4920   15.2060    0.7750 C   0  0  0  0  0  0  0  0  0  0  0  0
  1  2  1  0  0  0  0
  1  4  1  0  0  0  0
  3  4  2  0  0  0  0
  4  7  1  0  0  0  0
  5 14  1  0  0  0  0
  6 22  1  0  0  0  0
  6 20  1  0  0  0  0
  7 10  2  0  0  0  0
  7 13  1  0  0  0  0
  8 14  1  0  0  0  0
  8 27  2  0  0  0  0
  9 19  1  0  0  0  0
  9 23  1  0  0  0  0
 10 12  1  0  0  0  0
 11 27  1  0  0  0  0
 11 28  1  0  0  0  0
 12 14  2  0  0  0  0
 12 28  1  0  0  0  0
 13 28  2  0  0  0  0
 15  5  1  6  0  0  0
 15 16  1  0  0  0  0
 15 24  1  0  0  0  0
 16 17  2  0  0  0  0
 16 21  1  0  0  0  0
 17 18  1  0  0  0  0
 18 19  2  0  0  0  0
 19 20  1  0  0  0  0
 20 21  2  0  0  0  0
 22 23  1  0  0  0  0
 24 25  1  0  0  0  0
 24 26  1  0  0  0  0
M  END
$$$$
