Mpro-P0045_0A
     RDKit          3D

 24 26  0  0  0  0  0  0  0  0999 V2000
   13.3650    6.8310   22.0800 O   0  0  0  0  0  0  0  0  0  0  0  0
   13.3830    5.6270   22.3300 C   0  0  0  0  0  0  0  0  0  0  0  0
   12.7740    4.3770   21.7080 C   0  0  0  0  0  0  0  0  0  0  0  0
   13.9760    4.9240   23.3130 N   0  0  0  0  0  0  0  0  0  0  0  0
   13.6420    3.6170   22.7170 C   0  0  1  0  0  0  0  0  0  0  0  0
   12.7580    2.8360   23.5460 O   0  0  0  0  0  0  0  0  0  0  0  0
   12.4220    1.5760   23.0940 C   0  0  0  0  0  0  0  0  0  0  0  0
   13.3970    0.6660   22.7190 C   0  0  0  0  0  0  0  0  0  0  0  0
   12.9910   -0.5810   22.2890 C   0  0  0  0  0  0  0  0  0  0  0  0
   14.1920   -1.7270   21.7660 Cl  0  0  0  0  0  0  0  0  0  0  0  0
   11.6550   -0.9330   22.2230 C   0  0  0  0  0  0  0  0  0  0  0  0
   11.0750    1.2440   23.0520 C   0  0  0  0  0  0  0  0  0  0  0  0
   10.6840   -0.0150   22.6070 C   0  0  0  0  0  0  0  0  0  0  0  0
    9.2190   -0.3740   22.5140 C   0  0  0  0  0  0  0  0  0  0  0  0
    8.5370    0.3390   21.3640 C   0  0  0  0  0  0  0  0  0  0  0  0
    8.9560    1.4080   20.9230 O   0  0  0  0  0  0  0  0  0  0  0  0
    7.4340   -0.2790   20.8840 N   0  0  0  0  0  0  0  0  0  0  0  0
    6.6760    0.2320   19.8050 C   0  0  1  0  0  0  0  0  0  0  0  0
    5.5820    1.0780   20.0610 C   0  0  0  0  0  0  0  0  0  0  0  0
    5.1310    1.3970   21.4650 C   0  0  0  0  0  0  0  0  0  0  0  0
    7.0310   -0.0200   18.4790 C   0  0  0  0  0  0  0  0  0  0  0  0
    6.3810    0.5000   17.4290 N   0  0  0  0  0  0  0  0  0  0  0  0
    5.3470    1.3090   17.6870 C   0  0  0  0  0  0  0  0  0  0  0  0
    4.9180    1.6170   18.9640 C   0  0  0  0  0  0  0  0  0  0  0  0
  2  1  1  0
  3  2  1  0
  4  2  1  0
  5  3  1  0
  5  4  1  0
  5  6  1  1
  7  6  1  0
  8  7  1  0
  9  8  1  0
 10  9  1  0
 11  9  1  0
 12  7  1  0
 13 12  1  0
 13 11  1  0
 14 13  1  0
 15 14  1  0
 16 15  1  0
 17 15  1  0
 18 17  1  1
 19 18  1  0
 20 19  1  0
 21 18  1  0
 22 21  1  0
 23 22  1  0
 24 23  1  0
 24 19  1  0
M  END
$$$$
